REMARK  27 active torsions:
REMARK  status: ('A' for Active; 'I' for Inactive)
REMARK    1  A    between atoms: C_1  and  C_32 
REMARK    2  A    between atoms: C_1  and  O_2 
REMARK    3  A    between atoms: C_3  and  O_2 
REMARK    4  A    between atoms: C_3  and  C_4 
REMARK    5  A    between atoms: C_4  and  S_5 
REMARK    6  A    between atoms: C_6  and  S_5 
REMARK    7  A    between atoms: C_6  and  C_7 
REMARK    8  A    between atoms: C_7  and  N_12 
REMARK    9  A    between atoms: C_7  and  C_8 
REMARK       I    between atoms: C_8  and  N_9 
REMARK   10  A    between atoms: C_10  and  N_9 
REMARK   11  A    between atoms: C_10  and  C_14 
REMARK   12  A    between atoms: C_10  and  C_15 
REMARK   13  A    between atoms: C_14  and  O_33 
REMARK   14  A    between atoms: C_15  and  O_16 
REMARK   15  A    between atoms: C_19  and  C_20 
REMARK   16  A    between atoms: C_20  and  C_21 
REMARK   17  A    between atoms: C_21  and  C_22 
REMARK   18  A    between atoms: C_22  and  C_23 
REMARK   19  A    between atoms: C_23  and  C_24 
REMARK   20  A    between atoms: C_24  and  C_25 
REMARK   21  A    between atoms: C_25  and  C_26 
REMARK   22  A    between atoms: C_26  and  C_27 
REMARK   23  A    between atoms: C_27  and  C_28 
REMARK   24  A    between atoms: C_28  and  C_29 
REMARK   25  A    between atoms: C_29  and  C_30 
REMARK   26  A    between atoms: C_30  and  C_31 
REMARK   27  A    between atoms: C_31  and  C_32 
ROOT
HETATM    1  C   ***     1      23.486 -39.255  36.055  1.00  0.00     0.258 C 
HETATM    2  O   ***     1      24.510 -38.817  35.588  1.00  0.00    -0.265 OA
ENDROOT
BRANCH   1   3
HETATM    3  C   ***     1      22.156 -38.861  35.462  1.00  0.00     0.111 C 
BRANCH   3   4
HETATM    4  C   ***     1      21.033 -39.546  36.230  1.00  0.00     0.010 C 
BRANCH   4   5
HETATM    5  C   ***     1      19.690 -39.147  35.631  1.00  0.00     0.000 C 
BRANCH   5   6
HETATM    6  C   ***     1      18.568 -39.832  36.399  1.00  0.00     0.000 C 
BRANCH   6   7
HETATM    7  C   ***     1      17.225 -39.434  35.800  1.00  0.00     0.000 C 
BRANCH   7   8
HETATM    8  C   ***     1      16.103 -40.119  36.568  1.00  0.00     0.000 C 
BRANCH   8   9
HETATM    9  C   ***     1      14.760 -39.721  35.968  1.00  0.00     0.000 C 
BRANCH   9  10
HETATM   10  C   ***     1      13.638 -40.406  36.736  1.00  0.00     0.000 C 
BRANCH  10  11
HETATM   11  C   ***     1      12.295 -40.008  36.137  1.00  0.00     0.000 C 
BRANCH  11  12
HETATM   12  C   ***     1      11.172 -40.693  36.905  1.00  0.00     0.000 C 
BRANCH  12  13
HETATM   13  C   ***     1       9.830 -40.295  36.306  1.00  0.00     0.000 C 
BRANCH  13  14
HETATM   14  C   ***     1       8.707 -40.980  37.074  1.00  0.00     0.000 C 
BRANCH  14  15
HETATM   15  C   ***     1       7.365 -40.582  36.475  1.00  0.00    -0.000 C 
BRANCH  15  16
HETATM   16  C   ***     1       6.242 -41.267  37.243  1.00  0.00    -0.005 C 
HETATM   17  C   ***     1       4.900 -40.869  36.644  1.00  0.00     0.005 C 
ENDBRANCH  15  16
ENDBRANCH  14  15
ENDBRANCH  13  14
ENDBRANCH  12  13
ENDBRANCH  11  12
ENDBRANCH  10  11
ENDBRANCH   9  10
ENDBRANCH   8   9
ENDBRANCH   7   8
ENDBRANCH   6   7
ENDBRANCH   5   6
ENDBRANCH   4   5
ENDBRANCH   3   4
ENDBRANCH   1   3
BRANCH   1  18
HETATM   18  O   ***     1      23.531 -40.090  37.100  1.00  0.00    -0.321 OA
BRANCH  18  19
HETATM   19  C   ***     1      24.767 -40.457  37.651  1.00  0.00     0.189 C 
BRANCH  19  20
HETATM   20  C   ***     1      24.540 -41.407  38.819  1.00  0.00     0.101 C 
BRANCH  20  21
HETATM   21  S   ***     1      26.140 -41.882  39.533  1.00  0.00    -0.165 SA
BRANCH  21  22
HETATM   22  C   ***     1      26.201 -43.015  40.950  1.00  0.00     0.108 C 
BRANCH  22  23
HETATM   23  C   ***     1      27.652 -43.248  41.352  1.00  0.00     0.176 C 
BRANCH  23  24
HETATM   24  N   ***     1      27.699 -44.145  42.475  1.00  0.00    -0.418 N 
HETATM   25  H   ***     1      28.597 -44.412  42.877  1.00  0.00     0.150 HD
HETATM   26  H   ***     1      26.834 -44.514  42.870  1.00  0.00     0.150 HD
ENDBRANCH  23  24
BRANCH  23  27
HETATM   27  C   ***     1      28.287 -41.933  41.732  1.00  0.00     0.241 C 
HETATM   28  N   ***     1      29.596 -41.895  42.131  1.00  0.00    -0.344 N 
HETATM   29  H   ***     1      30.138 -42.749  42.171  1.00  0.00     0.163 HD
HETATM   30  O   ***     1      27.640 -40.914  41.685  1.00  0.00    -0.271 OA
BRANCH  28  31
HETATM   31  C   ***     1      30.206 -40.632  42.496  1.00  0.00     0.207 C 
BRANCH  31  32
HETATM   32  C   ***     1      29.455 -40.026  43.657  1.00  0.00     0.283 C 
HETATM   33  O   ***     1      28.502 -40.602  44.126  1.00  0.00    -0.263 OA
BRANCH  32  34
HETATM   34  O   ***     1      29.843 -38.851  44.165  1.00  0.00    -0.325 OA
HETATM   35  C   ***     1      29.145 -38.289  45.243  1.00  0.00     0.213 C 
ENDBRANCH  32  34
ENDBRANCH  31  32
BRANCH  31  36
HETATM   36  C   ***     1      30.155 -39.681  41.308  1.00  0.00     0.199 C 
BRANCH  36  37
HETATM   37  O   ***     1      31.458 -39.312  40.946  1.00  0.00    -0.398 OA
HETATM   38  H   ***     1      31.598 -38.724  40.224  1.00  0.00     0.209 HD
ENDBRANCH  36  37
ENDBRANCH  31  36
ENDBRANCH  28  31
ENDBRANCH  23  27
ENDBRANCH  22  23
ENDBRANCH  21  22
ENDBRANCH  20  21
ENDBRANCH  19  20
ENDBRANCH  18  19
ENDBRANCH   1  18
TORSDOF 27
